  
       XFOIL         Version 6.99
  
 Calculated polar for: NACA 23012  12%                                 
  
 1 1 Reynolds number fixed          Mach number fixed         
  
 xtrf =   1.000 (top)        1.000 (bottom)  
 Mach =   0.000     Re =     1.000 e 6     Ncrit =   9.000
  
   alpha    CL        CD       CDp       CM     Top_Xtr  Bot_Xtr
  ------ -------- --------- --------- -------- -------- --------
 -10.000  -0.5406   0.08571   0.08402  -0.0176   1.0000   0.0305
  -9.500  -0.5758   0.06990   0.06807  -0.0323   1.0000   0.0305
  -9.000  -0.6066   0.06253   0.06052  -0.0320   1.0000   0.0306
  -8.500  -0.6140   0.05590   0.05365  -0.0298   1.0000   0.0306
  -8.000  -0.6152   0.05010   0.04760  -0.0253   1.0000   0.0307
  -7.500  -0.6153   0.04517   0.04244  -0.0189   1.0000   0.0307
  -7.000  -0.5789   0.03873   0.03563  -0.0194   0.9965   0.0308
  -6.500  -0.5287   0.03245   0.02893  -0.0214   0.9909   0.0308
  -6.000  -0.4760   0.02671   0.02279  -0.0227   0.9843   0.0308
  -5.500  -0.4448   0.01089   0.00550  -0.0184   0.9732   0.0212
  -5.000  -0.3916   0.00963   0.00396  -0.0174   0.9547   0.0220
  -4.500  -0.3386   0.00946   0.00389  -0.0162   0.9205   0.0307
  -4.000  -0.2876   0.00893   0.00321  -0.0148   0.8852   0.0360
  -3.500  -0.2349   0.00856   0.00270  -0.0137   0.8467   0.0403
  -3.000  -0.1815   0.00830   0.00232  -0.0129   0.8043   0.0461
  -2.500  -0.1283   0.00817   0.00203  -0.0120   0.7477   0.0617
  -2.000  -0.0746   0.00798   0.00180  -0.0114   0.6959   0.0897
  -1.500  -0.0285   0.00667   0.00141  -0.0100   0.6473   0.3821
  -1.000   0.0211   0.00609   0.00127  -0.0088   0.5971   0.5675
  -0.500   0.0719   0.00582   0.00126  -0.0076   0.5469   0.6949
   0.000   0.1249   0.00583   0.00129  -0.0068   0.4966   0.7636
   0.500   0.1777   0.00594   0.00136  -0.0059   0.4410   0.8223
   1.000   0.2298   0.00612   0.00149  -0.0048   0.3895   0.8797
   1.500   0.2816   0.00639   0.00166  -0.0035   0.3427   0.9226
   2.000   0.3353   0.00674   0.00183  -0.0028   0.2980   0.9454
   2.500   0.3918   0.00704   0.00203  -0.0028   0.2741   0.9626
   3.000   0.4500   0.00736   0.00223  -0.0032   0.2480   0.9762
   3.500   0.5193   0.00769   0.00243  -0.0062   0.2318   0.9819
   4.000   0.5865   0.00812   0.00274  -0.0088   0.2086   0.9880
   4.500   0.6577   0.00830   0.00293  -0.0122   0.2054   0.9913
   5.000   0.7286   0.00853   0.00314  -0.0156   0.1982   0.9951
   5.500   0.7967   0.00893   0.00341  -0.0186   0.1822   0.9983
   6.000   0.8563   0.00939   0.00393  -0.0197   0.1662   1.0000
   6.500   0.9038   0.00948   0.00404  -0.0182   0.1632   1.0000
   7.000   0.9499   0.00976   0.00431  -0.0164   0.1556   1.0000
   7.500   0.9942   0.01025   0.00468  -0.0144   0.1393   1.0000
   8.000   1.0395   0.01072   0.00515  -0.0125   0.1272   1.0000
   8.500   1.0872   0.01103   0.00551  -0.0111   0.1246   1.0000
   9.000   1.1339   0.01149   0.00602  -0.0096   0.1156   1.0000
   9.500   1.1781   0.01228   0.00665  -0.0079   0.0919   1.0000
  10.000   1.2247   0.01290   0.00726  -0.0067   0.0831   1.0000
  10.500   1.2679   0.01389   0.00813  -0.0051   0.0631   1.0000
  11.000   1.3131   0.01466   0.00892  -0.0038   0.0569   1.0000
  11.500   1.3527   0.01591   0.01005  -0.0019   0.0419   1.0000
  12.000   1.3944   0.01687   0.01107  -0.0002   0.0355   1.0000
  12.500   1.4143   0.01946   0.01377   0.0044   0.0193   1.0000
  13.000   1.4472   0.02057   0.01500   0.0072   0.0190   1.0000
  13.500   1.4790   0.02154   0.01604   0.0099   0.0189   1.0000
  14.000   1.5115   0.02255   0.01710   0.0122   0.0185   1.0000
  14.500   1.5361   0.02408   0.01869   0.0149   0.0169   1.0000
  16.500   1.3701   0.06487   0.06103   0.0100   0.0080   1.0000
  17.000   1.3216   0.07924   0.07568   0.0034   0.0080   1.0000
  17.500   1.2760   0.09364   0.09032  -0.0033   0.0081   1.0000
  18.000   1.2325   0.10800   0.10491  -0.0105   0.0082   1.0000
  18.500   1.1900   0.12236   0.11949  -0.0182   0.0082   1.0000
  19.000   1.1688   0.13210   0.12940  -0.0239   0.0083   1.0000
