  
       XFOIL         Version 6.99
  
 Calculated polar for: Iced NACA 23012 — NACA23012_mixed_XFOIL.dat   
  
 1 1 Reynolds number fixed          Mach number fixed         
  
 xtrf =   1.000 (top)        1.000 (bottom)  
 Mach =   0.000     Re =     1.000 e 6     Ncrit =   9.000
  
   alpha    CL        CD       CDp       CM     Top_Xtr  Bot_Xtr
  ------ -------- --------- --------- -------- -------- --------
   0.700   0.2183   0.01564   0.00716  -0.0072   0.0721   0.0955
