  
       XFOIL         Version 6.99
  
 Calculated polar for: Iced NACA 23012 — NACA23012_mixed_XFOIL.dat   
  
 1 1 Reynolds number fixed          Mach number fixed         
  
 xtrf =   1.000 (top)        1.000 (bottom)  
 Mach =   0.000     Re =     1.000 e 6     Ncrit =   9.000
  
   alpha    CL        CD       CDp       CM     Top_Xtr  Bot_Xtr
  ------ -------- --------- --------- -------- -------- --------
   8.000   0.9985   0.01764   0.00913   0.0145   0.0003   0.1086
   8.500   1.0538   0.01841   0.00992   0.0153   0.0003   0.1059
   9.000   1.1051   0.01907   0.01064   0.0166   0.0002   0.1040
   9.500   1.1515   0.01985   0.01150   0.0187   0.0002   0.1070
  10.000   1.1924   0.02080   0.01257   0.0217   0.0002   0.1089
  10.500   1.2413   0.02190   0.01376   0.0229   0.0002   0.1102
  11.000   1.2861   0.02313   0.01507   0.0248   0.0002   0.1090
  11.300   1.3079   0.02390   0.01592   0.0268   0.0002   0.1089
  11.400   1.3150   0.02426   0.01633   0.0273   0.0002   0.1100
