  
       XFOIL         Version 6.99
  
 Calculated polar for: Iced NACA 23012 — NACA23012_rime_XFOIL.dat    
  
 1 1 Reynolds number fixed          Mach number fixed         
  
 xtrf =   1.000 (top)        1.000 (bottom)  
 Mach =   0.000     Re =     1.000 e 6     Ncrit =   9.000
  
   alpha    CL        CD       CDp       CM     Top_Xtr  Bot_Xtr
  ------ -------- --------- --------- -------- -------- --------
   1.000   0.2527   0.00905   0.00172  -0.0110   0.3575   0.1289
   2.000   0.3445   0.00690   0.00178  -0.0064   0.3196   0.8603
   3.000   0.4479   0.00741   0.00220  -0.0027   0.2560   0.9581
   4.000   0.5815   0.00817   0.00273  -0.0061   0.2148   0.9874
   5.000   0.7305   0.00893   0.00326  -0.0132   0.1784   0.9963
   6.000   0.8565   0.00967   0.00383  -0.0158   0.1495   0.9999
   7.000   0.9458   0.01043   0.00451  -0.0107   0.1316   0.9999
   9.000   1.1321   0.01230   0.00633  -0.0025   0.1059   0.9999
  10.000   1.2287   0.01343   0.00746   0.0005   0.0948   0.9999
  12.000   1.4150   0.01607   0.01022   0.0067   0.0750   0.9999
  13.000   1.5033   0.01780   0.01200   0.0098   0.0648   0.9999
  13.500   1.5394   0.01877   0.01308   0.0126   0.0622   0.9999

